boundary        p p p

units           real
atom_style      full
pair_style      hybrid/overlay dpd 2500 10.0 22052412  coul/cut 10.0 lj/cut 10.0
bond_style      harmonic

read_data       ../data.CUB3DL100_R2
  orthogonal box = (0.0000000 0.0000000 0.0000000) to (500.00000 500.00000 500.00000)
  reading atoms ...
  100000 atoms
  scanning bonds ...
  reading bonds ...
  49875 bonds
     3 = max # of 1-2 neighbors
     4 = max # of 1-3 neighbors
     8 = max # of 1-4 neighbors
    11 = max # of special neighbors
#read_restart res.T2500KV0

comm_modify     mode single vel yes

mass 1	41.073	#CH2-CH-CH2
mass 2	17.031	#NH3	charge +1
mass 3	42.081	#CH2-CH2-CH2
mass 4	1045 #Au
mass 5	1045 #Au

pair_coeff  1 1 dpd  25 4.5
pair_coeff  1 2 dpd  50 4.5
pair_coeff  1 3 dpd  30 4.5
#pair_coeff  1 4 dpd  10  4.5 # Au with PAH CH2-CH-CH2
#pair_coeff  1 5 dpd  10  4.5 # Au with PAH CH2-CH-CH2
pair_coeff  2 2 dpd  75 4.5 # NH3 with NH3
pair_coeff  2 3 dpd  50 4.5
#pair_coeff  2 4 dpd  10  4.5 # Au with PAH NH3
#pair_coeff  2 5 dpd  10  4.5 # Au with PAH NH3
pair_coeff  3 3 dpd  25 4.5
#pair_coeff  3 4 dpd  10 4.5 # Au with PAH CH2-CH2-CH2
#pair_coeff  3 5 dpd  10 4.5 # Au with PAH CH2-CH2-CH2
pair_coeff  4 4 lj/cut 5.29 2.951  #morse 10.95375740  1.5830  3.02420000  8.0  Au
pair_coeff  4 5 lj/cut 5.29 2.951  #morse 10.95375740  1.5830  3.02420000  8.0  Au
pair_coeff  5 5 lj/cut 5.29 2.951  #morse 10.95375740  1.5830  3.02420000  8.0  Au

pair_coeff  1 4 lj/cut 0.18 3.42 # Au with PAH CH2-CH-CH2
pair_coeff  2 4 lj/cut 0.081424812 3.0925 # Au with PAH NH3
pair_coeff  3 4 lj/cut 0.18 3.42 # Au with PAH CH2-CH2-CH2
pair_coeff  1 5 lj/cut 0.18 3.42 # Au with PAH CH2-CH-CH2
pair_coeff  2 5 lj/cut 0.081424812 3.0925 # Au with PAH NH3
pair_coeff  3 5 lj/cut 0.18 3.42 # Au with PAH CH2-CH2-CH2
pair_coeff      * * coul/cut  10.0

bond_coeff      1 225.0 3.0
bond_coeff      2 225.0 2.6

neighbor        2.5 bin
neigh_modify    every 1 delay 0 check no once no

variable vtimpstep equal 1
variable Pdamp  equal  1*1000
variable Tdamp  equal  1*100
timestep 1

restart 500000 res.1 res.2

group PAH type 1 2 3
50000 atoms in group PAH
group Au type 4 5
50000 atoms in group Au
dump 1 all xyz 500000 T2500KCUBR2.xyz
dump_modify 1 element C N C Au Pt
dump d1 PAH custom 500000 T2500KCUBR2pah.txt id mol x y z ix iy iz
dump d2 Au  custom 500000 T2500KCUBR2au.txt id mol x y z ix iy iz

variable        totEnergy equal pe+ke
thermo          1000
thermo_style    custom step temp press pe ke v_totEnergy
#thermo_modify   format float %24.16f

dielectric 80

#write_data data.T2500KV0

fix NVE0 PAH nve
fix LAN0 PAH langevin 2500 2500 100  22052413
run     20000000
  update every 1 steps, delay 0 steps, check no
Step Temp Press PotEng KinEng v_totEnergy
0            0    1643.4374    305887.45            0    305887.45
Averages over the last 10001 of 20001 rows, steps 10000000 to 20000000:
Temp Press PotEng KinEng v_totEnergy
1250.02 1738.07 388051 372604 760656
Loop time of 84035.2 on 48 procs for 20000000 steps with 100000 atoms

unfix LAN0
unfix NVE0

write_data data.T2500KCUBR2
  update every 1 steps, delay 0 steps, check no
